# Name file for MODFLOW-2005, generated by Flopy version 3.2.6.
#xul:0; yul:1000; rotation:0; proj4_str:+init=EPSG:4326; units:meters; lenuni:2; length_multiplier:1.0 ;start_datetime:1-1-1970
LIST               2  confined.list
DIS               11  confined.dis 
BAS6              13  confined.bas 
LPF               15  confined.lpf 
OC                14  confined.oc 
PCG               27  confined.pcg 
DATA(BINARY)      53  confined.cbc REPLACE
DATA(BINARY)      51  confined.hds REPLACE
